*SPEF "ieee 1481-1999"
*DESIGN "tiny_user_project"
*DATE "11:11:11 Fri 11 11, 1111"
*VENDOR "OpenRCX"
*PROGRAM "Parallel Extraction"
*VERSION "1.0"
*DESIGN_FLOW "NAME_SCOPE LOCAL" "PIN_CAP NONE"
*DIVIDER /
*DELIMITER :
*BUS_DELIMITER []
*T_UNIT 1 NS
*C_UNIT 1 PF
*R_UNIT 1 OHM
*L_UNIT 1 HENRY

*NAME_MAP
*1 io_in[0]
*2 io_in[10]
*3 io_in[11]
*4 io_in[12]
*5 io_in[13]
*6 io_in[14]
*7 io_in[15]
*8 io_in[16]
*9 io_in[17]
*10 io_in[18]
*11 io_in[19]
*12 io_in[1]
*13 io_in[20]
*14 io_in[21]
*15 io_in[22]
*16 io_in[23]
*17 io_in[24]
*18 io_in[25]
*19 io_in[26]
*20 io_in[27]
*21 io_in[28]
*22 io_in[29]
*23 io_in[2]
*24 io_in[30]
*25 io_in[31]
*26 io_in[32]
*27 io_in[33]
*28 io_in[34]
*29 io_in[35]
*30 io_in[36]
*31 io_in[37]
*32 io_in[3]
*33 io_in[4]
*34 io_in[5]
*35 io_in[6]
*36 io_in[7]
*37 io_in[8]
*38 io_in[9]
*39 net15
*40 net25
*41 net26
*42 net27
*43 net28
*44 net29
*45 net30
*46 net31
*47 net32
*48 net33
*49 net34
*50 net16
*51 net35
*52 net36
*53 net37
*54 net38
*55 net39
*56 net40
*57 net41
*58 net42
*59 net43
*60 net44
*61 net17
*62 net45
*63 net46
*64 net47
*65 net48
*66 net49
*67 net50
*68 net51
*69 net52
*70 net18
*71 net19
*72 net20
*73 net21
*74 net22
*75 net23
*76 net24
*77 net53
*78 net63
*79 net64
*80 net65
*81 net66
*82 net67
*83 net68
*84 io_out[16]
*85 io_out[17]
*86 io_out[18]
*87 io_out[19]
*88 net54
*89 io_out[20]
*90 io_out[21]
*91 net69
*92 net70
*93 net71
*94 net72
*95 net73
*96 net74
*97 net75
*98 net76
*99 net55
*100 net77
*101 net78
*102 net79
*103 net80
*104 net81
*105 net82
*106 net83
*107 net84
*108 net56
*109 net57
*110 net58
*111 net59
*112 net60
*113 net61
*114 net62
*115 la_data_in[0]
*116 la_data_in[10]
*117 la_data_in[11]
*118 la_data_in[12]
*119 la_data_in[13]
*120 la_data_in[14]
*121 la_data_in[15]
*122 la_data_in[16]
*123 la_data_in[17]
*124 la_data_in[18]
*125 la_data_in[19]
*126 la_data_in[1]
*127 la_data_in[20]
*128 la_data_in[21]
*129 la_data_in[22]
*130 la_data_in[23]
*131 la_data_in[24]
*132 la_data_in[25]
*133 la_data_in[26]
*134 la_data_in[27]
*135 la_data_in[28]
*136 la_data_in[29]
*137 la_data_in[2]
*138 la_data_in[30]
*139 la_data_in[31]
*140 la_data_in[32]
*141 la_data_in[33]
*142 la_data_in[34]
*143 la_data_in[35]
*144 la_data_in[36]
*145 la_data_in[37]
*146 la_data_in[38]
*147 la_data_in[39]
*148 la_data_in[3]
*149 la_data_in[40]
*150 la_data_in[41]
*151 la_data_in[42]
*152 la_data_in[43]
*153 la_data_in[44]
*154 la_data_in[45]
*155 la_data_in[46]
*156 la_data_in[47]
*157 la_data_in[48]
*158 la_data_in[49]
*159 la_data_in[4]
*160 la_data_in[50]
*161 la_data_in[51]
*162 la_data_in[52]
*163 la_data_in[53]
*164 la_data_in[54]
*165 la_data_in[55]
*166 la_data_in[56]
*167 la_data_in[57]
*168 la_data_in[58]
*169 la_data_in[59]
*170 la_data_in[5]
*171 la_data_in[60]
*172 la_data_in[61]
*173 la_data_in[62]
*174 la_data_in[63]
*175 la_data_in[6]
*176 la_data_in[7]
*177 la_data_in[8]
*178 la_data_in[9]
*179 net85
*180 net95
*181 net96
*182 net97
*183 net98
*184 net99
*185 net100
*186 net101
*187 net102
*188 net103
*189 net104
*190 net86
*191 net105
*192 net106
*193 net107
*194 net108
*195 net109
*196 net110
*197 net111
*198 net112
*199 net113
*200 net114
*201 net87
*202 net115
*203 net116
*204 net117
*205 net118
*206 net119
*207 net120
*208 net121
*209 net122
*210 net123
*211 net124
*212 net88
*213 net125
*214 net126
*215 net127
*216 net128
*217 net129
*218 net130
*219 net131
*220 net132
*221 net133
*222 net134
*223 net89
*224 net135
*225 net136
*226 net137
*227 net138
*228 net139
*229 net140
*230 net141
*231 net142
*232 net143
*233 net144
*234 net90
*235 net145
*236 net146
*237 net147
*238 net148
*239 net91
*240 net92
*241 net93
*242 net94
*243 la_oenb[0]
*244 la_oenb[10]
*245 la_oenb[11]
*246 la_oenb[12]
*247 la_oenb[13]
*248 la_oenb[14]
*249 la_oenb[15]
*250 la_oenb[16]
*251 la_oenb[17]
*252 la_oenb[18]
*253 la_oenb[19]
*254 la_oenb[1]
*255 la_oenb[20]
*256 la_oenb[21]
*257 la_oenb[22]
*258 la_oenb[23]
*259 la_oenb[24]
*260 la_oenb[25]
*261 la_oenb[26]
*262 la_oenb[27]
*263 la_oenb[28]
*264 la_oenb[29]
*265 la_oenb[2]
*266 la_oenb[30]
*267 la_oenb[31]
*268 la_oenb[32]
*269 la_oenb[33]
*270 la_oenb[34]
*271 la_oenb[35]
*272 la_oenb[36]
*273 la_oenb[37]
*274 la_oenb[38]
*275 la_oenb[39]
*276 la_oenb[3]
*277 la_oenb[40]
*278 la_oenb[41]
*279 la_oenb[42]
*280 la_oenb[43]
*281 la_oenb[44]
*282 la_oenb[45]
*283 la_oenb[46]
*284 la_oenb[47]
*285 la_oenb[48]
*286 la_oenb[49]
*287 la_oenb[4]
*288 la_oenb[50]
*289 la_oenb[51]
*290 la_oenb[52]
*291 la_oenb[53]
*292 la_oenb[54]
*293 la_oenb[55]
*294 la_oenb[56]
*295 la_oenb[57]
*296 la_oenb[58]
*297 la_oenb[59]
*298 la_oenb[5]
*299 la_oenb[60]
*300 la_oenb[61]
*301 la_oenb[62]
*302 la_oenb[63]
*303 la_oenb[6]
*304 la_oenb[7]
*305 la_oenb[8]
*306 la_oenb[9]
*307 user_clock2
*308 net149
*309 net150
*310 net151
*313 wb_clk_i
*314 wb_rst_i
*315 net152
*316 wbs_adr_i[0]
*317 wbs_adr_i[10]
*318 wbs_adr_i[11]
*319 wbs_adr_i[12]
*320 wbs_adr_i[13]
*321 wbs_adr_i[14]
*322 wbs_adr_i[15]
*323 wbs_adr_i[16]
*324 wbs_adr_i[17]
*325 wbs_adr_i[18]
*326 wbs_adr_i[19]
*327 wbs_adr_i[1]
*328 wbs_adr_i[20]
*329 wbs_adr_i[21]
*330 wbs_adr_i[22]
*331 wbs_adr_i[23]
*332 wbs_adr_i[24]
*333 wbs_adr_i[25]
*334 wbs_adr_i[26]
*335 wbs_adr_i[27]
*336 wbs_adr_i[28]
*337 wbs_adr_i[29]
*338 wbs_adr_i[2]
*339 wbs_adr_i[30]
*340 wbs_adr_i[31]
*341 wbs_adr_i[3]
*342 wbs_adr_i[4]
*343 wbs_adr_i[5]
*344 wbs_adr_i[6]
*345 wbs_adr_i[7]
*346 wbs_adr_i[8]
*347 wbs_adr_i[9]
*348 wbs_cyc_i
*349 wbs_dat_i[0]
*350 wbs_dat_i[10]
*351 wbs_dat_i[11]
*352 wbs_dat_i[12]
*353 wbs_dat_i[13]
*354 wbs_dat_i[14]
*355 wbs_dat_i[15]
*356 wbs_dat_i[16]
*357 wbs_dat_i[17]
*358 wbs_dat_i[18]
*359 wbs_dat_i[19]
*360 wbs_dat_i[1]
*361 wbs_dat_i[20]
*362 wbs_dat_i[21]
*363 wbs_dat_i[22]
*364 wbs_dat_i[23]
*365 wbs_dat_i[24]
*366 wbs_dat_i[25]
*367 wbs_dat_i[26]
*368 wbs_dat_i[27]
*369 wbs_dat_i[28]
*370 wbs_dat_i[29]
*371 wbs_dat_i[2]
*372 wbs_dat_i[30]
*373 wbs_dat_i[31]
*374 wbs_dat_i[3]
*375 wbs_dat_i[4]
*376 wbs_dat_i[5]
*377 wbs_dat_i[6]
*378 wbs_dat_i[7]
*379 wbs_dat_i[8]
*380 wbs_dat_i[9]
*381 net153
*382 net163
*383 net164
*384 net165
*385 net166
*386 net167
*387 net168
*388 net169
*389 net170
*390 net171
*391 net172
*392 net154
*393 net173
*394 net174
*395 net175
*396 net176
*397 net177
*398 net178
*399 net179
*400 net180
*401 net181
*402 net182
*403 net155
*404 net183
*405 net184
*406 net156
*407 net157
*408 net158
*409 net159
*410 net160
*411 net161
*412 net162
*413 wbs_sel_i[0]
*414 wbs_sel_i[1]
*415 wbs_sel_i[2]
*416 wbs_sel_i[3]
*417 wbs_stb_i
*418 wbs_we_i
*419 _000_
*420 _001_
*421 _002_
*422 _003_
*423 _004_
*424 _005_
*425 _006_
*426 _007_
*427 _008_
*428 _009_
*429 _010_
*430 _011_
*431 _016_
*432 _017_
*433 _018_
*434 _019_
*435 _020_
*436 _021_
*437 _022_
*438 _023_
*439 _024_
*440 _025_
*441 _026_
*442 _027_
*443 _028_
*444 _029_
*445 _030_
*446 _031_
*447 _032_
*448 _033_
*449 _034_
*450 _035_
*451 _036_
*452 _037_
*453 _038_
*454 _039_
*455 _040_
*456 _041_
*457 _042_
*458 _043_
*459 _044_
*460 _045_
*461 _046_
*462 _047_
*463 _048_
*464 _049_
*465 _050_
*466 _051_
*467 _052_
*468 _053_
*469 _054_
*470 _055_
*471 _056_
*472 _057_
*473 _058_
*474 _059_
*475 _060_
*476 _061_
*477 _062_
*478 _063_
*479 _064_
*480 _065_
*481 _066_
*482 _067_
*483 _068_
*484 _069_
*485 _070_
*486 _071_
*487 _072_
*488 _073_
*489 _074_
*490 _075_
*491 _076_
*492 _077_
*493 _078_
*494 _079_
*495 _080_
*496 _081_
*497 _082_
*498 _083_
*499 _084_
*500 _085_
*501 _086_
*502 _087_
*503 _088_
*504 _089_
*505 _090_
*506 _091_
*507 _092_
*508 _093_
*509 _094_
*510 _095_
*511 _096_
*512 _097_
*513 _098_
*514 _099_
*515 _100_
*516 _101_
*517 _102_
*518 _103_
*519 _104_
*520 _105_
*521 _106_
*522 _107_
*523 _108_
*524 _109_
*525 _110_
*526 _111_
*527 _112_
*528 _113_
*529 _114_
*530 _115_
*531 _116_
*532 _117_
*533 _118_
*534 _119_
*535 _120_
*536 _121_
*537 mod\.counter\[0\]
*538 mod\.counter\[10\]
*539 mod\.counter\[11\]
*540 mod\.counter\[12\]
*541 mod\.counter\[13\]
*542 mod\.counter\[14\]
*543 mod\.counter\[15\]
*544 mod\.counter\[1\]
*545 mod\.counter\[2\]
*546 mod\.counter\[3\]
*547 mod\.counter\[4\]
*548 mod\.counter\[5\]
*549 mod\.counter\[6\]
*550 mod\.counter\[7\]
*551 mod\.counter\[8\]
*552 mod\.counter\[9\]
*553 net1
*554 net10
*555 net11
*556 net12
*557 net13
*558 net14
*559 net185
*560 net186
*561 net187
*562 net188
*563 net2
*564 net3
*565 net4
*566 net5
*567 net6
*568 net7
*569 net8
*570 net9
*571 ANTENNA__122__I
*572 ANTENNA__123__I
*573 ANTENNA__124__A1
*574 ANTENNA__124__A2
*575 ANTENNA__125__I
*576 ANTENNA__126__I
*577 ANTENNA__127__I
*578 ANTENNA__128__A1
*579 ANTENNA__128__A2
*580 ANTENNA__129__I
*581 ANTENNA__130__I
*582 ANTENNA__131__A1
*583 ANTENNA__131__A2
*584 ANTENNA__132__A1
*585 ANTENNA__132__A2
*586 ANTENNA__132__A3
*587 ANTENNA__133__I
*588 ANTENNA__134__I
*589 ANTENNA__135__I
*590 ANTENNA__136__A1
*591 ANTENNA__136__A2
*592 ANTENNA__136__B
*593 ANTENNA__136__C
*594 ANTENNA__137__A1
*595 ANTENNA__137__A2
*596 ANTENNA__137__A3
*597 ANTENNA__138__I
*598 ANTENNA__139__I
*599 ANTENNA__140__I
*600 ANTENNA__141__A1
*601 ANTENNA__141__A2
*602 ANTENNA__141__B
*603 ANTENNA__141__C
*604 ANTENNA__142__A1
*605 ANTENNA__142__A2
*606 ANTENNA__142__A3
*607 ANTENNA__142__B2
*608 ANTENNA__143__I
*609 ANTENNA__144__I
*610 ANTENNA__145__A1
*611 ANTENNA__145__A2
*612 ANTENNA__146__A1
*613 ANTENNA__146__A2
*614 ANTENNA__146__A3
*615 ANTENNA__146__A4
*616 ANTENNA__147__A1
*617 ANTENNA__147__A2
*618 ANTENNA__148__I
*619 ANTENNA__149__A1
*620 ANTENNA__149__A2
*621 ANTENNA__150__A1
*622 ANTENNA__150__A2
*623 ANTENNA__151__A1
*624 ANTENNA__151__A2
*625 ANTENNA__151__B
*626 ANTENNA__152__I
*627 ANTENNA__153__I
*628 ANTENNA__154__I
*629 ANTENNA__155__A1
*630 ANTENNA__155__A2
*631 ANTENNA__156__A1
*632 ANTENNA__156__A2
*633 ANTENNA__156__A3
*634 ANTENNA__157__A1
*635 ANTENNA__157__A2
*636 ANTENNA__158__A1
*637 ANTENNA__158__A2
*638 ANTENNA__159__A1
*639 ANTENNA__159__A2
*640 ANTENNA__159__B
*641 ANTENNA__159__C
*642 ANTENNA__160__A1
*643 ANTENNA__160__A2
*644 ANTENNA__161__I
*645 ANTENNA__162__A1
*646 ANTENNA__162__A2
*647 ANTENNA__162__A3
*648 ANTENNA__162__A4
*649 ANTENNA__163__A1
*650 ANTENNA__163__A2
*651 ANTENNA__164__A1
*652 ANTENNA__164__C
*653 ANTENNA__165__I
*654 ANTENNA__166__I
*655 ANTENNA__167__A1
*656 ANTENNA__167__A2
*657 ANTENNA__167__B
*658 ANTENNA__167__C
*659 ANTENNA__168__A1
*660 ANTENNA__168__A2
*661 ANTENNA__168__A3
*662 ANTENNA__169__A1
*663 ANTENNA__169__A2
*664 ANTENNA__169__A3
*665 ANTENNA__169__A4
*666 ANTENNA__170__A1
*667 ANTENNA__170__A2
*668 ANTENNA__171__A1
*669 ANTENNA__171__A2
*670 ANTENNA__171__A3
*671 ANTENNA__172__A1
*672 ANTENNA__172__A2
*673 ANTENNA__172__B
*674 ANTENNA__173__A1
*675 ANTENNA__173__A2
*676 ANTENNA__173__A3
*677 ANTENNA__174__A1
*678 ANTENNA__174__A2
*679 ANTENNA__175__A1
*680 ANTENNA__175__A2
*681 ANTENNA__175__B1
*682 ANTENNA__175__C
*683 ANTENNA__176__A1
*684 ANTENNA__176__A2
*685 ANTENNA__176__A3
*686 ANTENNA__176__A4
*687 ANTENNA__177__A1
*688 ANTENNA__177__A2
*689 ANTENNA__177__A3
*690 ANTENNA__178__I
*691 ANTENNA__179__A1
*692 ANTENNA__179__A2
*693 ANTENNA__179__B
*694 ANTENNA__180__I
*695 ANTENNA__181__A1
*696 ANTENNA__181__A2
*697 ANTENNA__181__A3
*698 ANTENNA__182__A1
*699 ANTENNA__182__A2
*700 ANTENNA__183__A1
*701 ANTENNA__183__A2
*702 ANTENNA__183__A3
*703 ANTENNA__185__A1
*704 ANTENNA__185__A2
*705 ANTENNA__185__B
*706 ANTENNA__185__C
*707 ANTENNA__186__A1
*708 ANTENNA__186__A2
*709 ANTENNA__186__A3
*710 ANTENNA__187__A1
*711 ANTENNA__187__A2
*712 ANTENNA__187__A3
*713 ANTENNA__187__A4
*714 ANTENNA__188__A1
*715 ANTENNA__188__A2
*716 ANTENNA__188__A3
*717 ANTENNA__189__A1
*718 ANTENNA__189__C
*719 ANTENNA__190__B
*720 ANTENNA__191__I
*721 ANTENNA__192__I
*722 ANTENNA__193__A1
*723 ANTENNA__193__A2
*724 ANTENNA__193__B
*725 ANTENNA__193__C
*726 ANTENNA__194__I
*727 ANTENNA__195__A1
*728 ANTENNA__196__A1
*729 ANTENNA__196__A2
*730 ANTENNA__197__A1
*731 ANTENNA__197__A2
*732 ANTENNA__197__A3
*733 ANTENNA__198__A1
*734 ANTENNA__198__A2
*735 ANTENNA__199__I
*736 ANTENNA__200__A1
*737 ANTENNA__200__A2
*738 ANTENNA__200__A3
*739 ANTENNA__201__A1
*740 ANTENNA__201__A2
*741 ANTENNA__202__I
*742 ANTENNA__203__I
*743 ANTENNA__204__I
*744 ANTENNA__205__A2
*745 ANTENNA__206__A1
*746 ANTENNA__206__A2
*747 ANTENNA__206__A3
*748 ANTENNA__206__A4
*749 ANTENNA__207__I
*750 ANTENNA__208__I
*751 ANTENNA__209__A1
*752 ANTENNA__209__A2
*753 ANTENNA__210__A1
*754 ANTENNA__210__A2
*755 ANTENNA__211__A1
*756 ANTENNA__211__A2
*757 ANTENNA__212__A1
*758 ANTENNA__212__A2
*759 ANTENNA__213__A1
*760 ANTENNA__213__A2
*761 ANTENNA__213__A3
*762 ANTENNA__214__A1
*763 ANTENNA__214__A2
*764 ANTENNA__214__A3
*765 ANTENNA__215__A1
*766 ANTENNA__215__A2
*767 ANTENNA__216__A1
*768 ANTENNA__216__A2
*769 ANTENNA__216__A3
*770 ANTENNA__217__A1
*771 ANTENNA__217__A2
*772 ANTENNA__217__A3
*773 ANTENNA__217__A4
*774 ANTENNA__218__A1
*775 ANTENNA__218__A2
*776 ANTENNA__219__A1
*777 ANTENNA__219__A2
*778 ANTENNA__220__A1
*779 ANTENNA__220__A2
*780 ANTENNA__222__A1
*781 ANTENNA__223__A1
*782 ANTENNA__223__A2
*783 ANTENNA__224__A1
*784 ANTENNA__224__A2
*785 ANTENNA__224__A3
*786 ANTENNA__224__A4
*787 ANTENNA__225__I
*788 ANTENNA__226__I
*789 ANTENNA__227__A1
*790 ANTENNA__227__A2
*791 ANTENNA__228__A1
*792 ANTENNA__228__A2
*793 ANTENNA__229__A1
*794 ANTENNA__229__A2
*795 ANTENNA__229__A3
*796 ANTENNA__230__I
*797 ANTENNA__231__A1
*798 ANTENNA__231__A2
*799 ANTENNA__231__B
*800 ANTENNA__232__A1
*801 ANTENNA__232__A2
*802 ANTENNA__232__A3
*803 ANTENNA__234__I
*804 ANTENNA__235__A1
*805 ANTENNA__235__A2
*806 ANTENNA__236__A1
*807 ANTENNA__236__A2
*808 ANTENNA__237__A1
*809 ANTENNA__237__A2
*810 ANTENNA__238__A1
*811 ANTENNA__238__A2
*812 ANTENNA__239__A1
*813 ANTENNA__239__A2
*814 ANTENNA__239__A3
*815 ANTENNA__240__A1
*816 ANTENNA__240__A2
*817 ANTENNA__240__A3
*818 ANTENNA__241__A1
*819 ANTENNA__241__A2
*820 ANTENNA__242__A1
*821 ANTENNA__242__A2
*822 ANTENNA__243__A1
*823 ANTENNA__243__A2
*824 ANTENNA__243__A3
*825 ANTENNA__243__A4
*826 ANTENNA__244__A1
*827 ANTENNA__244__A2
*828 ANTENNA__244__B
*829 ANTENNA__244__C
*830 ANTENNA__245__D
*831 ANTENNA__246__D
*832 ANTENNA__248__D
*833 ANTENNA__250__D
*834 ANTENNA__253__CLK
*835 ANTENNA__254__CLK
*836 ANTENNA__255__CLK
*837 ANTENNA__256__CLK
*838 ANTENNA__435__I
*839 ANTENNA_fanout13_I
*840 ANTENNA_fanout14_I
*841 ANTENNA_input1_I
*842 ANTENNA_input2_I
*843 ANTENNA_input3_I
*844 ANTENNA_output4_I
*845 ANTENNA_output5_I
*846 ANTENNA_output6_I
*847 ANTENNA_output7_I
*848 ANTENNA_output8_I
*849 ANTENNA_output9_I
*850 FILLER_0_101
*851 FILLER_0_1011
*852 FILLER_0_1014
*853 FILLER_0_1017
*854 FILLER_0_1032
*855 FILLER_0_1038
*856 FILLER_0_1044
*857 FILLER_0_107
*858 FILLER_0_11
*859 FILLER_0_115
*860 FILLER_0_119
*861 FILLER_0_135
*862 FILLER_0_139
*863 FILLER_0_142
*864 FILLER_0_174
*865 FILLER_0_177
*866 FILLER_0_2
*867 FILLER_0_209
*868 FILLER_0_212
*869 FILLER_0_228
*870 FILLER_0_233
*871 FILLER_0_237
*872 FILLER_0_239
*873 FILLER_0_244
*874 FILLER_0_247
*875 FILLER_0_251
*876 FILLER_0_257
*877 FILLER_0_263
*878 FILLER_0_27
*879 FILLER_0_279
*880 FILLER_0_282
*881 FILLER_0_287
*882 FILLER_0_299
*883 FILLER_0_317
*884 FILLER_0_323
*885 FILLER_0_329
*886 FILLER_0_345
*887 FILLER_0_349
*888 FILLER_0_352
*889 FILLER_0_368
*890 FILLER_0_37
*891 FILLER_0_372
*892 FILLER_0_377
*893 FILLER_0_387
*894 FILLER_0_395
*895 FILLER_0_411
*896 FILLER_0_419
*897 FILLER_0_422
*898 FILLER_0_426
*899 FILLER_0_431
*900 FILLER_0_447
*901 FILLER_0_449
*902 FILLER_0_454
*903 FILLER_0_457
*904 FILLER_0_462
*905 FILLER_0_466
*906 FILLER_0_468
*907 FILLER_0_473
*908 FILLER_0_485
*909 FILLER_0_489
*910 FILLER_0_492
*911 FILLER_0_508
*912 FILLER_0_516
*913 FILLER_0_521
*914 FILLER_0_527
*915 FILLER_0_53
*916 FILLER_0_543
*917 FILLER_0_551
*918 FILLER_0_559
*919 FILLER_0_562
*920 FILLER_0_59
*921 FILLER_0_594
*922 FILLER_0_597
*923 FILLER_0_6
*924 FILLER_0_602
*925 FILLER_0_608
*926 FILLER_0_612
*927 FILLER_0_617
*928 FILLER_0_625
*929 FILLER_0_629
*930 FILLER_0_632
*931 FILLER_0_65
*932 FILLER_0_664
*933 FILLER_0_667
*934 FILLER_0_672
*935 FILLER_0_676
*936 FILLER_0_678
*937 FILLER_0_683
*938 FILLER_0_69
*939 FILLER_0_695
*940 FILLER_0_699
*941 FILLER_0_702
*942 FILLER_0_718
*943 FILLER_0_72
*944 FILLER_0_726
*945 FILLER_0_731
*946 FILLER_0_737
*947 FILLER_0_749
*948 FILLER_0_761
*949 FILLER_0_769
*950 FILLER_0_77
*951 FILLER_0_772
*952 FILLER_0_777
*953 FILLER_0_793
*954 FILLER_0_801
*955 FILLER_0_807
*956 FILLER_0_827
*957 FILLER_0_835
*958 FILLER_0_839
*959 FILLER_0_842
*960 FILLER_0_874
*961 FILLER_0_877
*962 FILLER_0_885
*963 FILLER_0_893
*964 FILLER_0_909
*965 FILLER_0_912
*966 FILLER_0_93
*967 FILLER_0_944
*968 FILLER_0_947
*969 FILLER_0_952
*970 FILLER_0_960
*971 FILLER_0_964
*972 FILLER_0_966
*973 FILLER_0_971
*974 FILLER_0_979
*975 FILLER_0_982
*976 FILLER_0_987
*977 FILLER_0_995
*978 FILLER_100_101
*979 FILLER_100_1024
*980 FILLER_100_1028
*981 FILLER_100_1031
*982 FILLER_100_1039
*983 FILLER_100_1043
*984 FILLER_100_105
*985 FILLER_100_108
*986 FILLER_100_172
*987 FILLER_100_176
*988 FILLER_100_179
*989 FILLER_100_2
*990 FILLER_100_243
*991 FILLER_100_247
*992 FILLER_100_250
*993 FILLER_100_314
*994 FILLER_100_318
*995 FILLER_100_321
*996 FILLER_100_34
*997 FILLER_100_37
*998 FILLER_100_385
*999 FILLER_100_389
*1000 FILLER_100_392
*1001 FILLER_100_456
*1002 FILLER_100_460
*1003 FILLER_100_463
*1004 FILLER_100_527
*1005 FILLER_100_531
*1006 FILLER_100_534
*1007 FILLER_100_598
*1008 FILLER_100_602
*1009 FILLER_100_605
*1010 FILLER_100_669
*1011 FILLER_100_673
*1012 FILLER_100_676
*1013 FILLER_100_740
*1014 FILLER_100_744
*1015 FILLER_100_747
*1016 FILLER_100_811
*1017 FILLER_100_815
*1018 FILLER_100_818
*1019 FILLER_100_882
*1020 FILLER_100_886
*1021 FILLER_100_889
*1022 FILLER_100_953
*1023 FILLER_100_957
*1024 FILLER_100_960
*1025 FILLER_101_1028
*1026 FILLER_101_1036
*1027 FILLER_101_1044
*1028 FILLER_101_137
*1029 FILLER_101_141
*1030 FILLER_101_144
*1031 FILLER_101_2
*1032 FILLER_101_208
*1033 FILLER_101_212
*1034 FILLER_101_215
*1035 FILLER_101_279
*1036 FILLER_101_283
*1037 FILLER_101_286
*1038 FILLER_101_350
*1039 FILLER_101_354
*1040 FILLER_101_357
*1041 FILLER_101_421
*1042 FILLER_101_425
*1043 FILLER_101_428
*1044 FILLER_101_492
*1045 FILLER_101_496
*1046 FILLER_101_499
*1047 FILLER_101_563
*1048 FILLER_101_567
*1049 FILLER_101_570
*1050 FILLER_101_634
*1051 FILLER_101_638
*1052 FILLER_101_641
*1053 FILLER_101_66
*1054 FILLER_101_70
*1055 FILLER_101_705
*1056 FILLER_101_709
*1057 FILLER_101_712
*1058 FILLER_101_73
*1059 FILLER_101_776
*1060 FILLER_101_780
*1061 FILLER_101_783
*1062 FILLER_101_847
*1063 FILLER_101_851
*1064 FILLER_101_854
*1065 FILLER_101_918
*1066 FILLER_101_922
*1067 FILLER_101_925
*1068 FILLER_101_989
*1069 FILLER_101_993
*1070 FILLER_101_996
*1071 FILLER_102_101
*1072 FILLER_102_1024
*1073 FILLER_102_1028
*1074 FILLER_102_1031
*1075 FILLER_102_1039
*1076 FILLER_102_1043
*1077 FILLER_102_105
*1078 FILLER_102_108
*1079 FILLER_102_13
*1080 FILLER_102_172
*1081 FILLER_102_176
*1082 FILLER_102_179
*1083 FILLER_102_2
*1084 FILLER_102_243
*1085 FILLER_102_247
*1086 FILLER_102_250
*1087 FILLER_102_29
*1088 FILLER_102_314
*1089 FILLER_102_318
*1090 FILLER_102_321
*1091 FILLER_102_33
*1092 FILLER_102_37
*1093 FILLER_102_385
*1094 FILLER_102_389
*1095 FILLER_102_392
*1096 FILLER_102_456
*1097 FILLER_102_460
*1098 FILLER_102_463
*1099 FILLER_102_527
*1100 FILLER_102_531
*1101 FILLER_102_534
*1102 FILLER_102_598
*1103 FILLER_102_602
*1104 FILLER_102_605
*1105 FILLER_102_669
*1106 FILLER_102_673
*1107 FILLER_102_676
*1108 FILLER_102_7
*1109 FILLER_102_740
*1110 FILLER_102_744
*1111 FILLER_102_747
*1112 FILLER_102_811
*1113 FILLER_102_815
*1114 FILLER_102_818
*1115 FILLER_102_882
*1116 FILLER_102_886
*1117 FILLER_102_889
*1118 FILLER_102_953
*1119 FILLER_102_957
*1120 FILLER_102_960
*1121 FILLER_103_1028
*1122 FILLER_103_1036
*1123 FILLER_103_1044
*1124 FILLER_103_137
*1125 FILLER_103_141
*1126 FILLER_103_144
*1127 FILLER_103_2
*1128 FILLER_103_208
*1129 FILLER_103_212
*1130 FILLER_103_215
*1131 FILLER_103_279
*1132 FILLER_103_283
*1133 FILLER_103_286
*1134 FILLER_103_350
*1135 FILLER_103_354
*1136 FILLER_103_357
*1137 FILLER_103_421
*1138 FILLER_103_425
*1139 FILLER_103_428
*1140 FILLER_103_492
*1141 FILLER_103_496
*1142 FILLER_103_499
*1143 FILLER_103_563
*1144 FILLER_103_567
*1145 FILLER_103_570
*1146 FILLER_103_634
*1147 FILLER_103_638
*1148 FILLER_103_641
*1149 FILLER_103_66
*1150 FILLER_103_70
*1151 FILLER_103_705
*1152 FILLER_103_709
*1153 FILLER_103_712
*1154 FILLER_103_73
*1155 FILLER_103_776
*1156 FILLER_103_780
*1157 FILLER_103_783
*1158 FILLER_103_847
*1159 FILLER_103_851
*1160 FILLER_103_854
*1161 FILLER_103_918
*1162 FILLER_103_922
*1163 FILLER_103_925
*1164 FILLER_103_989
*1165 FILLER_103_993
*1166 FILLER_103_996
*1167 FILLER_104_101
*1168 FILLER_104_1024
*1169 FILLER_104_1028
*1170 FILLER_104_1031
*1171 FILLER_104_1039
*1172 FILLER_104_1043
*1173 FILLER_104_105
*1174 FILLER_104_108
*1175 FILLER_104_17
*1176 FILLER_104_172
*1177 FILLER_104_176
*1178 FILLER_104_179
*1179 FILLER_104_2
*1180 FILLER_104_21
*1181 FILLER_104_243
*1182 FILLER_104_247
*1183 FILLER_104_250
*1184 FILLER_104_29
*1185 FILLER_104_314
*1186 FILLER_104_318
*1187 FILLER_104_321
*1188 FILLER_104_33
*1189 FILLER_104_37
*1190 FILLER_104_385
*1191 FILLER_104_389
*1192 FILLER_104_392
*1193 FILLER_104_456
*1194 FILLER_104_460
*1195 FILLER_104_463
*1196 FILLER_104_527
*1197 FILLER_104_531
*1198 FILLER_104_534
*1199 FILLER_104_598
*1200 FILLER_104_602
*1201 FILLER_104_605
*1202 FILLER_104_669
*1203 FILLER_104_673
*1204 FILLER_104_676
*1205 FILLER_104_740
*1206 FILLER_104_744
*1207 FILLER_104_747
*1208 FILLER_104_811
*1209 FILLER_104_815
*1210 FILLER_104_818
*1211 FILLER_104_882
*1212 FILLER_104_886
*1213 FILLER_104_889
*1214 FILLER_104_953
*1215 FILLER_104_957
*1216 FILLER_104_960
*1217 FILLER_105_1028
*1218 FILLER_105_1044
*1219 FILLER_105_105
*1220 FILLER_105_121
*1221 FILLER_105_129
*1222 FILLER_105_139
*1223 FILLER_105_141
*1224 FILLER_105_144
*1225 FILLER_105_147
*1226 FILLER_105_2
*1227 FILLER_105_211
*1228 FILLER_105_215
*1229 FILLER_105_279
*1230 FILLER_105_283
*1231 FILLER_105_286
*1232 FILLER_105_350
*1233 FILLER_105_354
*1234 FILLER_105_357
*1235 FILLER_105_421
*1236 FILLER_105_425
*1237 FILLER_105_428
*1238 FILLER_105_492
*1239 FILLER_105_496
*1240 FILLER_105_499
*1241 FILLER_105_563
*1242 FILLER_105_567
*1243 FILLER_105_570
*1244 FILLER_105_634
*1245 FILLER_105_638
*1246 FILLER_105_641
*1247 FILLER_105_66
*1248 FILLER_105_70
*1249 FILLER_105_705
*1250 FILLER_105_709
*1251 FILLER_105_712
*1252 FILLER_105_73
*1253 FILLER_105_776
*1254 FILLER_105_780
*1255 FILLER_105_783
*1256 FILLER_105_847
*1257 FILLER_105_851
*1258 FILLER_105_854
*1259 FILLER_105_918
*1260 FILLER_105_922
*1261 FILLER_105_925
*1262 FILLER_105_989
*1263 FILLER_105_993
*1264 FILLER_105_996
*1265 FILLER_106_101
*1266 FILLER_106_1024
*1267 FILLER_106_1028
*1268 FILLER_106_1031
*1269 FILLER_106_1039
*1270 FILLER_106_1043
*1271 FILLER_106_105
*1272 FILLER_106_108
*1273 FILLER_106_172
*1274 FILLER_106_176
*1275 FILLER_106_179
*1276 FILLER_106_2
*1277 FILLER_106_243
*1278 FILLER_106_247
*1279 FILLER_106_250
*1280 FILLER_106_314
*1281 FILLER_106_318
*1282 FILLER_106_321
*1283 FILLER_106_34
*1284 FILLER_106_37
*1285 FILLER_106_385
*1286 FILLER_106_389
*1287 FILLER_106_392
*1288 FILLER_106_456
*1289 FILLER_106_460
*1290 FILLER_106_463
*1291 FILLER_106_527
*1292 FILLER_106_531
*1293 FILLER_106_534
*1294 FILLER_106_598
*1295 FILLER_106_602
*1296 FILLER_106_605
*1297 FILLER_106_669
*1298 FILLER_106_673
*1299 FILLER_106_676
*1300 FILLER_106_740
*1301 FILLER_106_744
*1302 FILLER_106_747
*1303 FILLER_106_811
*1304 FILLER_106_815
*1305 FILLER_106_818
*1306 FILLER_106_882
*1307 FILLER_106_886
*1308 FILLER_106_889
*1309 FILLER_106_953
*1310 FILLER_106_957
*1311 FILLER_106_960
*1312 FILLER_107_1028
*1313 FILLER_107_1044
*1314 FILLER_107_137
*1315 FILLER_107_141
*1316 FILLER_107_144
*1317 FILLER_107_2
*1318 FILLER_107_208
*1319 FILLER_107_212
*1320 FILLER_107_215
*1321 FILLER_107_279
*1322 FILLER_107_283
*1323 FILLER_107_286
*1324 FILLER_107_350
*1325 FILLER_107_354
*1326 FILLER_107_357
*1327 FILLER_107_421
*1328 FILLER_107_425
*1329 FILLER_107_428
*1330 FILLER_107_492
*1331 FILLER_107_496
*1332 FILLER_107_499
*1333 FILLER_107_563
*1334 FILLER_107_567
*1335 FILLER_107_570
*1336 FILLER_107_634
*1337 FILLER_107_638
*1338 FILLER_107_641
*1339 FILLER_107_66
*1340 FILLER_107_70
*1341 FILLER_107_705
*1342 FILLER_107_709
*1343 FILLER_107_712
*1344 FILLER_107_73
*1345 FILLER_107_776
*1346 FILLER_107_780
*1347 FILLER_107_783
*1348 FILLER_107_847
*1349 FILLER_107_851
*1350 FILLER_107_854
*1351 FILLER_107_918
*1352 FILLER_107_922
*1353 FILLER_107_925
*1354 FILLER_107_989
*1355 FILLER_107_993
*1356 FILLER_107_996
*1357 FILLER_108_101
*1358 FILLER_108_1024
*1359 FILLER_108_1028
*1360 FILLER_108_1031
*1361 FILLER_108_1039
*1362 FILLER_108_1044
*1363 FILLER_108_105
*1364 FILLER_108_108
*1365 FILLER_108_172
*1366 FILLER_108_176
*1367 FILLER_108_179
*1368 FILLER_108_2
*1369 FILLER_108_243
*1370 FILLER_108_247
*1371 FILLER_108_250
*1372 FILLER_108_314
*1373 FILLER_108_318
*1374 FILLER_108_321
*1375 FILLER_108_34
*1376 FILLER_108_37
*1377 FILLER_108_385
*1378 FILLER_108_389
*1379 FILLER_108_392
*1380 FILLER_108_456
*1381 FILLER_108_460
*1382 FILLER_108_463
*1383 FILLER_108_527
*1384 FILLER_108_531
*1385 FILLER_108_534
*1386 FILLER_108_598
*1387 FILLER_108_602
*1388 FILLER_108_605
*1389 FILLER_108_669
*1390 FILLER_108_673
*1391 FILLER_108_676
*1392 FILLER_108_740
*1393 FILLER_108_744
*1394 FILLER_108_747
*1395 FILLER_108_811
*1396 FILLER_108_815
*1397 FILLER_108_818
*1398 FILLER_108_882
*1399 FILLER_108_886
*1400 FILLER_108_889
*1401 FILLER_108_953
*1402 FILLER_108_957
*1403 FILLER_108_960
*1404 FILLER_109_1028
*1405 FILLER_109_1044
*1406 FILLER_109_137
*1407 FILLER_109_141
*1408 FILLER_109_144
*1409 FILLER_109_2
*1410 FILLER_109_208
*1411 FILLER_109_212
*1412 FILLER_109_215
*1413 FILLER_109_279
*1414 FILLER_109_283
*1415 FILLER_109_286
*1416 FILLER_109_350
*1417 FILLER_109_354
*1418 FILLER_109_357
*1419 FILLER_109_421
*1420 FILLER_109_425
*1421 FILLER_109_428
*1422 FILLER_109_492
*1423 FILLER_109_496
*1424 FILLER_109_499
*1425 FILLER_109_563
*1426 FILLER_109_567
*1427 FILLER_109_570
*1428 FILLER_109_634
*1429 FILLER_109_638
*1430 FILLER_109_641
*1431 FILLER_109_66
*1432 FILLER_109_70
*1433 FILLER_109_705
*1434 FILLER_109_709
*1435 FILLER_109_712
*1436 FILLER_109_73
*1437 FILLER_109_776
*1438 FILLER_109_780
*1439 FILLER_109_783
*1440 FILLER_109_847
*1441 FILLER_109_851
*1442 FILLER_109_854
*1443 FILLER_109_918
*1444 FILLER_109_922
*1445 FILLER_109_925
*1446 FILLER_109_989
*1447 FILLER_109_993
*1448 FILLER_109_996
*1449 FILLER_10_101
*1450 FILLER_10_1024
*1451 FILLER_10_1028
*1452 FILLER_10_1031
*1453 FILLER_10_1039
*1454 FILLER_10_1043
*1455 FILLER_10_105
*1456 FILLER_10_108
*1457 FILLER_10_172
*1458 FILLER_10_176
*1459 FILLER_10_179
*1460 FILLER_10_2
*1461 FILLER_10_23
*1462 FILLER_10_243
*1463 FILLER_10_247
*1464 FILLER_10_250
*1465 FILLER_10_31
*1466 FILLER_10_314
*1467 FILLER_10_318
*1468 FILLER_10_321
*1469 FILLER_10_37
*1470 FILLER_10_385
*1471 FILLER_10_389
*1472 FILLER_10_392
*1473 FILLER_10_456
*1474 FILLER_10_460
*1475 FILLER_10_463
*1476 FILLER_10_527
*1477 FILLER_10_531
*1478 FILLER_10_534
*1479 FILLER_10_598
*1480 FILLER_10_602
*1481 FILLER_10_605
*1482 FILLER_10_669
*1483 FILLER_10_673
*1484 FILLER_10_676
*1485 FILLER_10_7
*1486 FILLER_10_740
*1487 FILLER_10_744
*1488 FILLER_10_747
*1489 FILLER_10_811
*1490 FILLER_10_815
*1491 FILLER_10_818
*1492 FILLER_10_882
*1493 FILLER_10_886
*1494 FILLER_10_889
*1495 FILLER_10_953
*1496 FILLER_10_957
*1497 FILLER_10_960
*1498 FILLER_110_101
*1499 FILLER_110_1024
*1500 FILLER_110_1028
*1501 FILLER_110_1031
*1502 FILLER_110_1039
*1503 FILLER_110_1043
*1504 FILLER_110_105
*1505 FILLER_110_108
*1506 FILLER_110_172
*1507 FILLER_110_176
*1508 FILLER_110_179
*1509 FILLER_110_2
*1510 FILLER_110_21
*1511 FILLER_110_243
*1512 FILLER_110_247
*1513 FILLER_110_250
*1514 FILLER_110_29
*1515 FILLER_110_314
*1516 FILLER_110_318
*1517 FILLER_110_321
*1518 FILLER_110_33
*1519 FILLER_110_37
*1520 FILLER_110_385
*1521 FILLER_110_389
*1522 FILLER_110_392
*1523 FILLER_110_456
*1524 FILLER_110_460
*1525 FILLER_110_463
*1526 FILLER_110_5
*1527 FILLER_110_527
*1528 FILLER_110_531
*1529 FILLER_110_534
*1530 FILLER_110_598
*1531 FILLER_110_602
*1532 FILLER_110_605
*1533 FILLER_110_669
*1534 FILLER_110_673
*1535 FILLER_110_676
*1536 FILLER_110_740
*1537 FILLER_110_744
*1538 FILLER_110_747
*1539 FILLER_110_811
*1540 FILLER_110_815
*1541 FILLER_110_818
*1542 FILLER_110_882
*1543 FILLER_110_886
*1544 FILLER_110_889
*1545 FILLER_110_953
*1546 FILLER_110_957
*1547 FILLER_110_960
*1548 FILLER_111_1028
*1549 FILLER_111_1044
*1550 FILLER_111_137
*1551 FILLER_111_141
*1552 FILLER_111_144
*1553 FILLER_111_19
*1554 FILLER_111_2
*1555 FILLER_111_208
*1556 FILLER_111_212
*1557 FILLER_111_215
*1558 FILLER_111_279
*1559 FILLER_111_283
*1560 FILLER_111_286
*1561 FILLER_111_350
*1562 FILLER_111_354
*1563 FILLER_111_357
*1564 FILLER_111_421
*1565 FILLER_111_425
*1566 FILLER_111_428
*1567 FILLER_111_492
*1568 FILLER_111_496
*1569 FILLER_111_499
*1570 FILLER_111_51
*1571 FILLER_111_563
*1572 FILLER_111_567
*1573 FILLER_111_570
*1574 FILLER_111_634
*1575 FILLER_111_638
*1576 FILLER_111_641
*1577 FILLER_111_67
*1578 FILLER_111_705
*1579 FILLER_111_709
*1580 FILLER_111_712
*1581 FILLER_111_73
*1582 FILLER_111_776
*1583 FILLER_111_780
*1584 FILLER_111_783
*1585 FILLER_111_847
*1586 FILLER_111_851
*1587 FILLER_111_854
*1588 FILLER_111_918
*1589 FILLER_111_922
*1590 FILLER_111_925
*1591 FILLER_111_989
*1592 FILLER_111_993
*1593 FILLER_111_996
*1594 FILLER_112_101
*1595 FILLER_112_1024
*1596 FILLER_112_1028
*1597 FILLER_112_1031
*1598 FILLER_112_1039
*1599 FILLER_112_1044
*1600 FILLER_112_105
*1601 FILLER_112_108
*1602 FILLER_112_172
*1603 FILLER_112_176
*1604 FILLER_112_179
*1605 FILLER_112_2
*1606 FILLER_112_23
*1607 FILLER_112_243
*1608 FILLER_112_247
*1609 FILLER_112_250
*1610 FILLER_112_31
*1611 FILLER_112_314