*SPEF "ieee 1481-1999"
*DESIGN "user_project_wrapper"
*DATE "11:11:11 Fri 11 11, 1111"
*VENDOR "OpenRCX"
*PROGRAM "Parallel Extraction"
*VERSION "1.0"
*DESIGN_FLOW "NAME_SCOPE LOCAL" "PIN_CAP NONE"
*DIVIDER /
*DELIMITER :
*BUS_DELIMITER []
*T_UNIT 1 NS
*C_UNIT 1 PF
*R_UNIT 1 OHM
*L_UNIT 1 HENRY

*NAME_MAP
*1 io_in[0]
*2 io_in[10]
*3 io_in[11]
*4 io_in[12]
*5 io_in[13]
*6 io_in[14]
*7 io_in[15]
*8 io_in[16]
*9 io_in[17]
*10 io_in[18]
*11 io_in[19]
*12 io_in[1]
*13 io_in[20]
*14 io_in[21]
*15 io_in[22]
*16 io_in[23]
*17 io_in[24]
*18 io_in[25]
*19 io_in[26]
*20 io_in[27]
*21 io_in[28]
*22 io_in[29]
*23 io_in[2]
*24 io_in[30]
*25 io_in[31]
*26 io_in[32]
*27 io_in[33]
*28 io_in[34]
*29 io_in[35]
*30 io_in[36]
*31 io_in[37]
*32 io_in[3]
*33 io_in[4]
*34 io_in[5]
*35 io_in[6]
*36 io_in[7]
*37 io_in[8]
*38 io_in[9]
*39 io_oeb[0]
*40 io_oeb[10]
*41 io_oeb[11]
*42 io_oeb[12]
*43 io_oeb[13]
*44 io_oeb[14]
*45 io_oeb[15]
*46 io_oeb[16]
*47 io_oeb[17]
*48 io_oeb[18]
*49 io_oeb[19]
*50 io_oeb[1]
*51 io_oeb[20]
*52 io_oeb[21]
*53 io_oeb[22]
*54 io_oeb[23]
*55 io_oeb[24]
*56 io_oeb[25]
*57 io_oeb[26]
*58 io_oeb[27]
*59 io_oeb[28]
*60 io_oeb[29]
*61 io_oeb[2]
*62 io_oeb[30]
*63 io_oeb[31]
*64 io_oeb[32]
*65 io_oeb[33]
*66 io_oeb[34]
*67 io_oeb[35]
*68 io_oeb[36]
*69 io_oeb[37]
*70 io_oeb[3]
*71 io_oeb[4]
*72 io_oeb[5]
*73 io_oeb[6]
*74 io_oeb[7]
*75 io_oeb[8]
*76 io_oeb[9]
*77 io_out[0]
*78 io_out[10]
*79 io_out[11]
*80 io_out[12]
*81 io_out[13]
*82 io_out[14]
*83 io_out[15]
*84 io_out[16]
*85 io_out[17]
*86 io_out[18]
*87 io_out[19]
*88 io_out[1]
*89 io_out[20]
*90 io_out[21]
*91 io_out[22]
*92 io_out[23]
*93 io_out[24]
*94 io_out[25]
*95 io_out[26]
*96 io_out[27]
*97 io_out[28]
*98 io_out[29]
*99 io_out[2]
*100 io_out[30]
*101 io_out[31]
*102 io_out[32]
*103 io_out[33]
*104 io_out[34]
*105 io_out[35]
*106 io_out[36]
*107 io_out[37]
*108 io_out[3]
*109 io_out[4]
*110 io_out[5]
*111 io_out[6]
*112 io_out[7]
*113 io_out[8]
*114 io_out[9]
*115 la_data_in[0]
*116 la_data_in[10]
*117 la_data_in[11]
*118 la_data_in[12]
*119 la_data_in[13]
*120 la_data_in[14]
*121 la_data_in[15]
*122 la_data_in[16]
*123 la_data_in[17]
*124 la_data_in[18]
*125 la_data_in[19]
*126 la_data_in[1]
*127 la_data_in[20]
*128 la_data_in[21]
*129 la_data_in[22]
*130 la_data_in[23]
*131 la_data_in[24]
*132 la_data_in[25]
*133 la_data_in[26]
*134 la_data_in[27]
*135 la_data_in[28]
*136 la_data_in[29]
*137 la_data_in[2]
*138 la_data_in[30]
*139 la_data_in[31]
*140 la_data_in[32]
*141 la_data_in[33]
*142 la_data_in[34]
*143 la_data_in[35]
*144 la_data_in[36]
*145 la_data_in[37]
*146 la_data_in[38]
*147 la_data_in[39]
*148 la_data_in[3]
*149 la_data_in[40]
*150 la_data_in[41]
*151 la_data_in[42]
*152 la_data_in[43]
*153 la_data_in[44]
*154 la_data_in[45]
*155 la_data_in[46]
*156 la_data_in[47]
*157 la_data_in[48]
*158 la_data_in[49]
*159 la_data_in[4]
*160 la_data_in[50]
*161 la_data_in[51]
*162 la_data_in[52]
*163 la_data_in[53]
*164 la_data_in[54]
*165 la_data_in[55]
*166 la_data_in[56]
*167 la_data_in[57]
*168 la_data_in[58]
*169 la_data_in[59]
*170 la_data_in[5]
*171 la_data_in[60]
*172 la_data_in[61]
*173 la_data_in[62]
*174 la_data_in[63]
*175 la_data_in[6]
*176 la_data_in[7]
*177 la_data_in[8]
*178 la_data_in[9]
*179 la_data_out[0]
*180 la_data_out[10]
*181 la_data_out[11]
*182 la_data_out[12]
*183 la_data_out[13]
*184 la_data_out[14]
*185 la_data_out[15]
*186 la_data_out[16]
*187 la_data_out[17]
*188 la_data_out[18]
*189 la_data_out[19]
*190 la_data_out[1]
*191 la_data_out[20]
*192 la_data_out[21]
*193 la_data_out[22]
*194 la_data_out[23]
*195 la_data_out[24]
*196 la_data_out[25]
*197 la_data_out[26]
*198 la_data_out[27]
*199 la_data_out[28]
*200 la_data_out[29]
*201 la_data_out[2]
*202 la_data_out[30]
*203 la_data_out[31]
*204 la_data_out[32]
*205 la_data_out[33]
*206 la_data_out[34]
*207 la_data_out[35]
*208 la_data_out[36]
*209 la_data_out[37]
*210 la_data_out[38]
*211 la_data_out[39]
*212 la_data_out[3]
*213 la_data_out[40]
*214 la_data_out[41]
*215 la_data_out[42]
*216 la_data_out[43]
*217 la_data_out[44]
*218 la_data_out[45]
*219 la_data_out[46]
*220 la_data_out[47]
*221 la_data_out[48]
*222 la_data_out[49]
*223 la_data_out[4]
*224 la_data_out[50]
*225 la_data_out[51]
*226 la_data_out[52]
*227 la_data_out[53]
*228 la_data_out[54]
*229 la_data_out[55]
*230 la_data_out[56]
*231 la_data_out[57]
*232 la_data_out[58]
*233 la_data_out[59]
*234 la_data_out[5]
*235 la_data_out[60]
*236 la_data_out[61]
*237 la_data_out[62]
*238 la_data_out[63]
*239 la_data_out[6]
*240 la_data_out[7]
*241 la_data_out[8]
*242 la_data_out[9]
*243 la_oenb[0]
*244 la_oenb[10]
*245 la_oenb[11]
*246 la_oenb[12]
*247 la_oenb[13]
*248 la_oenb[14]
*249 la_oenb[15]
*250 la_oenb[16]
*251 la_oenb[17]
*252 la_oenb[18]
*253 la_oenb[19]
*254 la_oenb[1]
*255 la_oenb[20]
*256 la_oenb[21]
*257 la_oenb[22]
*258 la_oenb[23]
*259 la_oenb[24]
*260 la_oenb[25]
*261 la_oenb[26]
*262 la_oenb[27]
*263 la_oenb[28]
*264 la_oenb[29]
*265 la_oenb[2]
*266 la_oenb[30]
*267 la_oenb[31]
*268 la_oenb[32]
*269 la_oenb[33]
*270 la_oenb[34]
*271 la_oenb[35]
*272 la_oenb[36]
*273 la_oenb[37]
*274 la_oenb[38]
*275 la_oenb[39]
*276 la_oenb[3]
*277 la_oenb[40]
*278 la_oenb[41]
*279 la_oenb[42]
*280 la_oenb[43]
*281 la_oenb[44]
*282 la_oenb[45]
*283 la_oenb[46]
*284 la_oenb[47]
*285 la_oenb[48]
*286 la_oenb[49]
*287 la_oenb[4]
*288 la_oenb[50]
*289 la_oenb[51]
*290 la_oenb[52]
*291 la_oenb[53]
*292 la_oenb[54]
*293 la_oenb[55]
*294 la_oenb[56]
*295 la_oenb[57]
*296 la_oenb[58]
*297 la_oenb[59]
*298 la_oenb[5]
*299 la_oenb[60]
*300 la_oenb[61]
*301 la_oenb[62]
*302 la_oenb[63]
*303 la_oenb[6]
*304 la_oenb[7]
*305 la_oenb[8]
*306 la_oenb[9]
*307 user_clock2
*308 user_irq[0]
*309 user_irq[1]
*310 user_irq[2]
*313 wb_clk_i
*314 wb_rst_i
*315 wbs_ack_o
*316 wbs_adr_i[0]
*317 wbs_adr_i[10]
*318 wbs_adr_i[11]
*319 wbs_adr_i[12]
*320 wbs_adr_i[13]
*321 wbs_adr_i[14]
*322 wbs_adr_i[15]
*323 wbs_adr_i[16]
*324 wbs_adr_i[17]
*325 wbs_adr_i[18]
*326 wbs_adr_i[19]
*327 wbs_adr_i[1]
*328 wbs_adr_i[20]
*329 wbs_adr_i[21]
*330 wbs_adr_i[22]
*331 wbs_adr_i[23]
*332 wbs_adr_i[24]
*333 wbs_adr_i[25]
*334 wbs_adr_i[26]
*335 wbs_adr_i[27]
*336 wbs_adr_i[28]
*337 wbs_adr_i[29]
*338 wbs_adr_i[2]
*339 wbs_adr_i[30]
*340 wbs_adr_i[31]
*341 wbs_adr_i[3]
*342 wbs_adr_i[4]
*343 wbs_adr_i[5]
*344 wbs_adr_i[6]
*345 wbs_adr_i[7]
*346 wbs_adr_i[8]
*347 wbs_adr_i[9]
*348 wbs_cyc_i
*349 wbs_dat_i[0]
*350 wbs_dat_i[10]
*351 wbs_dat_i[11]
*352 wbs_dat_i[12]
*353 wbs_dat_i[13]
*354 wbs_dat_i[14]
*355 wbs_dat_i[15]
*356 wbs_dat_i[16]
*357 wbs_dat_i[17]
*358 wbs_dat_i[18]
*359 wbs_dat_i[19]
*360 wbs_dat_i[1]
*361 wbs_dat_i[20]
*362 wbs_dat_i[21]
*363 wbs_dat_i[22]
*364 wbs_dat_i[23]
*365 wbs_dat_i[24]
*366 wbs_dat_i[25]
*367 wbs_dat_i[26]
*368 wbs_dat_i[27]
*369 wbs_dat_i[28]
*370 wbs_dat_i[29]
*371 wbs_dat_i[2]
*372 wbs_dat_i[30]
*373 wbs_dat_i[31]
*374 wbs_dat_i[3]
*375 wbs_dat_i[4]
*376 wbs_dat_i[5]
*377 wbs_dat_i[6]
*378 wbs_dat_i[7]
*379 wbs_dat_i[8]
*380 wbs_dat_i[9]
*381 wbs_dat_o[0]
*382 wbs_dat_o[10]
*383 wbs_dat_o[11]
*384 wbs_dat_o[12]
*385 wbs_dat_o[13]
*386 wbs_dat_o[14]
*387 wbs_dat_o[15]
*388 wbs_dat_o[16]
*389 wbs_dat_o[17]
*390 wbs_dat_o[18]
*391 wbs_dat_o[19]
*392 wbs_dat_o[1]
*393 wbs_dat_o[20]
*394 wbs_dat_o[21]
*395 wbs_dat_o[22]
*396 wbs_dat_o[23]
*397 wbs_dat_o[24]
*398 wbs_dat_o[25]
*399 wbs_dat_o[26]
*400 wbs_dat_o[27]
*401 wbs_dat_o[28]
*402 wbs_dat_o[29]
*403 wbs_dat_o[2]
*404 wbs_dat_o[30]
*405 wbs_dat_o[31]
*406 wbs_dat_o[3]
*407 wbs_dat_o[4]
*408 wbs_dat_o[5]
*409 wbs_dat_o[6]
*410 wbs_dat_o[7]
*411 wbs_dat_o[8]
*412 wbs_dat_o[9]
*413 wbs_sel_i[0]
*414 wbs_sel_i[1]
*415 wbs_sel_i[2]
*416 wbs_sel_i[3]
*417 wbs_stb_i
*418 wbs_we_i
*419 mprj

*PORTS
io_in[0] I
io_in[10] I
io_in[11] I
io_in[12] I
io_in[13] I
io_in[14] I
io_in[15] I
io_in[16] I
io_in[17] I
io_in[18] I
io_in[19] I
io_in[1] I
io_in[20] I
io_in[21] I
io_in[22] I
io_in[23] I
io_in[24] I
io_in[25] I
io_in[26] I
io_in[27] I
io_in[28] I
io_in[29] I
io_in[2] I
io_in[30] I
io_in[31] I
io_in[32] I
io_in[33] I
io_in[34] I
io_in[35] I
io_in[36] I
io_in[37] I
io_in[3] I
io_in[4] I
io_in[5] I
io_in[6] I
io_in[7] I
io_in[8] I
io_in[9] I
io_oeb[0] O
io_oeb[10] O
io_oeb[11] O
io_oeb[12] O
io_oeb[13] O
io_oeb[14] O
io_oeb[15] O
io_oeb[16] O
io_oeb[17] O
io_oeb[18] O
io_oeb[19] O
io_oeb[1] O
io_oeb[20] O
io_oeb[21] O
io_oeb[22] O
io_oeb[23] O
io_oeb[24] O
io_oeb[25] O
io_oeb[26] O
io_oeb[27] O
io_oeb[28] O
io_oeb[29] O
io_oeb[2] O
io_oeb[30] O
io_oeb[31] O
io_oeb[32] O
io_oeb[33] O
io_oeb[34] O
io_oeb[35] O
io_oeb[36] O
io_oeb[37] O
io_oeb[3] O
io_oeb[4] O
io_oeb[5] O
io_oeb[6] O
io_oeb[7] O
io_oeb[8] O
io_oeb[9] O
io_out[0] O
io_out[10] O
io_out[11] O
io_out[12] O
io_out[13] O
io_out[14] O
io_out[15] O
io_out[16] O
io_out[17] O
io_out[18] O
io_out[19] O
io_out[1] O
io_out[20] O
io_out[21] O
io_out[22] O
io_out[23] O
io_out[24] O
io_out[25] O
io_out[26] O
io_out[27] O
io_out[28] O
io_out[29] O
io_out[2] O
io_out[30] O
io_out[31] O
io_out[32] O
io_out[33] O
io_out[34] O
io_out[35] O
io_out[36] O
io_out[37] O
io_out[3] O
io_out[4] O
io_out[5] O
io_out[6] O
io_out[7] O
io_out[8] O
io_out[9] O
la_data_in[0] I
la_data_in[10] I
la_data_in[11] I
la_data_in[12] I
la_data_in[13] I
la_data_in[14] I
la_data_in[15] I
la_data_in[16] I
la_data_in[17] I
la_data_in[18] I
la_data_in[19] I
la_data_in[1] I
la_data_in[20] I
la_data_in[21] I
la_data_in[22] I
la_data_in[23] I
la_data_in[24] I
la_data_in[25] I
la_data_in[26] I
la_data_in[27] I
la_data_in[28] I
la_data_in[29] I
la_data_in[2] I
la_data_in[30] I
la_data_in[31] I
la_data_in[32] I
la_data_in[33] I
la_data_in[34] I
la_data_in[35] I
la_data_in[36] I
la_data_in[37] I
la_data_in[38] I
la_data_in[39] I
la_data_in[3] I
la_data_in[40] I
la_data_in[41] I
la_data_in[42] I
la_data_in[43] I
la_data_in[44] I
la_data_in[45] I
la_data_in[46] I
la_data_in[47] I
la_data_in[48] I
la_data_in[49] I
la_data_in[4] I
la_data_in[50] I
la_data_in[51] I
la_data_in[52] I
la_data_in[53] I
la_data_in[54] I
la_data_in[55] I
la_data_in[56] I
la_data_in[57] I
la_data_in[58] I
la_data_in[59] I
la_data_in[5] I
la_data_in[60] I
la_data_in[61] I
la_data_in[62] I
la_data_in[63] I
la_data_in[6] I
la_data_in[7] I
la_data_in[8] I
la_data_in[9] I
la_data_out[0] O
la_data_out[10] O
la_data_out[11] O
la_data_out[12] O
la_data_out[13] O
la_data_out[14] O
la_data_out[15] O
la_data_out[16] O
la_data_out[17] O
la_data_out[18] O
la_data_out[19] O
la_data_out[1] O
la_data_out[20] O
la_data_out[21] O
la_data_out[22] O
la_data_out[23] O
la_data_out[24] O
la_data_out[25] O
la_data_out[26] O
la_data_out[27] O
la_data_out[28] O
la_data_out[29] O
la_data_out[2] O
la_data_out[30] O
la_data_out[31] O
la_data_out[32] O
la_data_out[33] O
la_data_out[34] O
la_data_out[35] O
la_data_out[36] O
la_data_out[37] O
la_data_out[38] O
la_data_out[39] O
la_data_out[3] O
la_data_out[40] O
la_data_out[41] O
la_data_out[42] O
la_data_out[43] O
la_data_out[44] O
la_data_out[45] O
la_data_out[46] O
la_data_out[47] O
la_data_out[48] O
la_data_out[49] O
la_data_out[4] O
la_data_out[50] O
la_data_out[51] O
la_data_out[52] O
la_data_out[53] O
la_data_out[54] O
la_data_out[55] O
la_data_out[56] O
la_data_out[57] O
la_data_out[58] O
la_data_out[59] O
la_data_out[5] O
la_data_out[60] O
la_data_out[61] O
la_data_out[62] O
la_data_out[63] O
la_data_out[6] O
la_data_out[7] O
la_data_out[8] O
la_data_out[9] O
la_oenb[0] I
la_oenb[10] I
la_oenb[11] I
la_oenb[12] I
la_oenb[13] I
la_oenb[14] I
la_oenb[15] I
la_oenb[16] I
la_oenb[17] I
la_oenb[18] I
la_oenb[19] I
la_oenb[1] I
la_oenb[20] I
la_oenb[21] I
la_oenb[22] I
la_oenb[23] I
la_oenb[24] I
la_oenb[25] I
la_oenb[26] I
la_oenb[27] I
la_oenb[28] I
la_oenb[29] I
la_oenb[2] I
la_oenb[30] I
la_oenb[31] I
la_oenb[32] I
la_oenb[33] I
la_oenb[34] I
la_oenb[35] I
la_oenb[36] I
la_oenb[37] I
la_oenb[38] I
la_oenb[39] I
la_oenb[3] I
la_oenb[40] I
la_oenb[41] I
la_oenb[42] I
la_oenb[43] I
la_oenb[44] I
la_oenb[45] I
la_oenb[46] I
la_oenb[47] I
la_oenb[48] I
la_oenb[49] I
la_oenb[4] I
la_oenb[50] I
la_oenb[51] I
la_oenb[52] I
la_oenb[53] I
la_oenb[54] I
la_oenb[55] I
la_oenb[56] I
la_oenb[57] I
la_oenb[58] I
la_oenb[59] I
la_oenb[5] I
la_oenb[60] I
la_oenb[61] I
la_oenb[62] I
la_oenb[63] I
la_oenb[6] I
la_oenb[7] I
la_oenb[8] I
la_oenb[9] I
user_clock2 I
user_irq[0] O
user_irq[1] O
user_irq[2] O
wb_clk_i I
wb_rst_i I
wbs_ack_o O
wbs_adr_i[0] I
wbs_adr_i[10] I
wbs_adr_i[11] I
wbs_adr_i[12] I
wbs_adr_i[13] I
wbs_adr_i[14] I
wbs_adr_i[15] I
wbs_adr_i[16] I
wbs_adr_i[17] I
wbs_adr_i[18] I
wbs_adr_i[19] I
wbs_adr_i[1] I
wbs_adr_i[20] I
wbs_adr_i[21] I
wbs_adr_i[22] I
wbs_adr_i[23] I
wbs_adr_i[24] I
wbs_adr_i[25] I
wbs_adr_i[26] I
wbs_adr_i[27] I
wbs_adr_i[28] I
wbs_adr_i[29] I
wbs_adr_i[2] I
wbs_adr_i[30] I
wbs_adr_i[31] I
wbs_adr_i[3] I
wbs_adr_i[4] I
wbs_adr_i[5] I
wbs_adr_i[6] I
wbs_adr_i[7] I
wbs_adr_i[8] I
wbs_adr_i[9] I
wbs_cyc_i I
wbs_dat_i[0] I
wbs_dat_i[10] I
wbs_dat_i[11] I
wbs_dat_i[12] I
wbs_dat_i[13] I
wbs_dat_i[14] I
wbs_dat_i[15] I
wbs_dat_i[16] I
wbs_dat_i[17] I
wbs_dat_i[18] I
wbs_dat_i[19] I
wbs_dat_i[1] I
wbs_dat_i[20] I
wbs_dat_i[21] I
wbs_dat_i[22] I
wbs_dat_i[23] I
wbs_dat_i[24] I
wbs_dat_i[25] I
wbs_dat_i[26] I
wbs_dat_i[27] I
wbs_dat_i[28] I
wbs_dat_i[29] I
wbs_dat_i[2] I
wbs_dat_i[30] I
wbs_dat_i[31] I
wbs_dat_i[3] I
wbs_dat_i[4] I
wbs_dat_i[5] I
wbs_dat_i[6] I
wbs_dat_i[7] I
wbs_dat_i[8] I
wbs_dat_i[9] I
wbs_dat_o[0] O
wbs_dat_o[10] O
wbs_dat_o[11] O
wbs_dat_o[12] O
wbs_dat_o[13] O
wbs_dat_o[14] O
wbs_dat_o[15] O
wbs_dat_o[16] O
wbs_dat_o[17] O
wbs_dat_o[18] O
wbs_dat_o[19] O
wbs_dat_o[1] O
wbs_dat_o[20] O
wbs_dat_o[21] O
wbs_dat_o[22] O
wbs_dat_o[23] O
wbs_dat_o[24] O
wbs_dat_o[25] O
wbs_dat_o[26] O
wbs_dat_o[27] O
wbs_dat_o[28] O
wbs_dat_o[29] O
wbs_dat_o[2] O
wbs_dat_o[30] O
wbs_dat_o[31] O
wbs_dat_o[3] O
wbs_dat_o[4] O
wbs_dat_o[5] O
wbs_dat_o[6] O
wbs_dat_o[7] O
wbs_dat_o[8] O
wbs_dat_o[9] O
wbs_sel_i[0] I
wbs_sel_i[1] I
wbs_sel_i[2] I
wbs_sel_i[3] I
wbs_stb_i I
wbs_we_i I

*D_NET *1 0.463528
*CONN
*P io_in[0] I
*I *419:io_in[0] I *D tiny_user_project
*CAP
1 io_in[0] 0.00353166
2 *419:io_in[0] 0.00155501
3 *1:14 0.0312516
4 *1:13 0.0296966
5 *1:11 0.0671968
6 *1:10 0.0707284
7 *419:io_in[0] *20:24 0.002279
8 *1:11 io_out[0] 0
9 *1:11 *77:17 0
10 *1:11 *117:16 0.0588552
11 *1:14 *4:16 0.00639545
12 *1:14 *122:19 0.00800844
13 *1:14 *165:19 0.00130366
14 *1:14 *201:15 0
15 *1:14 *212:13 0.146674
16 *1:14 *233:13 0.0360524
*RES
1 io_in[0] *1:10 36.675 
2 *1:10 *1:11 576.63 
3 *1:11 *1:13 4.5 
4 *1:13 *1:14 482.49 
5 *1:14 *419:io_in[0] 29.61 
*END

*D_NET *2 0.219563
*CONN
*P io_in[10] I
*I *419:io_in[10] I *D tiny_user_project
*CAP
1 io_in[10] 0.0047001
2 *419:io_in[10] 0.00104952
3 *2:12 0.00920834
4 *2:11 0.00815882
5 *2:9 0.069706
6 *2:7 0.0744061
7 *419:io_in[10] *220:12 0.000550934
8 *2:12 *81:13 0.0269932
9 *2:12 *82:13 0.00635864
10 *2:12 *287:19 0.018431
*RES
1 io_in[10] *2:7 37.305 
2 *2:7 *2:9 543.06 
3 *2:9 *2:11 4.5 
4 *2:11 *2:12 130.41 
5 *2:12 *419:io_in[10] 22.32 
*END

*D_NET *3 0.332318
*CONN
*P io_in[11] I
*I *419:io_in[11] I *D tiny_user_project
*CAP
1 io_in[11] 0.000363112
2 *419:io_in[11] 0.00167283
3 *3:16 0.018847
4 *3:15 0.0171741
5 *3:13 0.0920689
6 *3:11 0.092432
7 *419:io_in[11] *419:io_in[14] 6.67147e-05
8 *419:io_in[11] *103:12 0
9 *3:16 *75:13 0.0480502
10 *3:16 *223:14 0.0616432
*RES
1 io_in[11] *3:11 3.195 
2 *3:11 *3:13 582.39 
3 *3:13 *3:15 4.5 
4 *3:15 *3:16 265.95 
5 *3:16 *419:io_in[11] 25.2 
*END

*D_NET *4 0.257807
*CONN
*P io_in[12] I
*I *419:io_in[12] I *D tiny_user_project
*CAP
1 io_in[12] 0.000167227
2 *419:io_in[12] 0.00208092
3 *4:16 0.0317268
4 *4:15 0.0296459
5 *4:13 0.0748981
6 *4:11 0.0750654
7 *4:16 *122:19 0.0378268
8 *1:14 *4:16 0.00639545
*RES
1 io_in[12] *4:11 2.115 
2 *4:11 *4:13 585.09 
3 *4:13 *4:15 4.5 
4 *4:15 *4:16 278.01 
5 *4:16 *419:io_in[12] 27.72 
*END

*D_NET *5 0.290023
*CONN
*P io_in[13] I
*I *419:io_in[13] I *D tiny_user_project
*CAP
1 io_in[13] 0.0755418
2 *419:io_in[13] 0.00288622
3 *5:8 0.043632
4 *5:7 0.0407458
5 *5:5 0.0755418
6 *419:io_in[13] *140:31 0
7 *5:8 *70:13 0.027463
8 *5:8 *120:19 0.0103517
9 *5:8 *255:11 0.0138605
*RES
1 io_in[13] *5:5 590.625 
2 *5:5 *5:7 4.5 
3 *5:7 *5:8 383.49 
4 *5:8 *419:io_in[13] 34.02 
*END

*D_NET *6 0.333405
*CONN
*P io_in[14] I
*I *419:io_in[14] I *D tiny_user_project
*CAP
1 io_in[14] 0.000264341
2 *419:io_in[14] 0.00348034
3 *6:16 0.0509686
4 *6:15 0.0474883
5 *6:13 0.0757975
6 *6:11 0.0760619
7 *419:io_in[14] *103:9 0.000154731
8 *6:16 *143:19 0.0432447
9 *6:16 *247:11 0.0358779
10 *419:io_in[11] *419:io_in[14] 6.67147e-05
*RES
1 io_in[14] *6:11 2.655 
2 *6:11 *6:13 593.19 
3 *6:13 *6:15 4.5 
4 *6:15 *6:16 459.09 
5 *6:16 *419:io_in[14] 38.25 
*END

*D_NET *7 0.257959
*CONN
*P io_in[15] I
*I *419:io_in[15] I *D tiny_user_project
*CAP
1 io_in[15] 0.0010289
2 *419:io_in[15] 0.00153099
3 *7:11 0.0476838
4 *7:10 0.0461529
5 *7:8 0.0407117
6 *7:7 0.0417406
7 *419:io_in[15] *75:16 0.00206991
8 *419:io_in[15] *77:11 0.0020622
9 *419:io_in[15] *112:34 3.37574e-05
10 *419:io_in[15] *158:14 0.000167327
11 *419:io_in[15] *379:67 3.06566e-05
12 *7:8 io_oeb[16] 0.00344509
13 *7:8 *10:10 0.000221982
14 *7:8 *16:8 0.0394174
15 *7:8 *83:17 0.0246511
16 *7:8 *86:18 0.00701072
*RES
1 io_in[15] *7:7 12.465 
2 *7:7 *7:8 452.43 
3 *7:8 *7:10 4.5 
4 *7:10 *7:11 349.83 
5 *7:11 *419:io_in[15] 32.4 
*END

*D_NET *8 0.213509
*CONN
*P io_in[16] I
*I *419:io_in[16] I *D tiny_user_project
*CAP
1 io_in[16] 0.000224836
2 *419:io_in[16] 0.000394142
3 *8:22 0.0264108
4 *8:21 0.0260166
5 *8:19 0.0193123
6 *8:18 0.0193123
7 *8:16 0.00765075
8 *8:15 0.00765075
9 *8:13 0.0490378
10 *8:11 0.0492627
11 *8:13 *227:107 0.00699361
12 *8:22 *419:la_data_in[20] 0.0012428
*RES
1 io_in[16] *8:11 2.475 
2 *8:11 *8:13 383.67 
3 *8:13 *8:15 4.5 
4 *8:15 *8:16 58.41 
5 *8:16 *8:18 4.5 
6 *8:18 *8:19 147.15 
7 *8:19 *8:21 4.5 
8 *8:21 *8:22 193.14 
9 *8:22 *419:io_in[16] 3.015 
*END

*D_NET *9 0.138873
*CONN
*P io_in[17] I
*I *419:io_in[17] I *D tiny_user_project
*CAP
1 io_in[17] 0.00143555
2 *419:io_in[17] 0.00215409
3 *9:11 0.0504732
4 *9:10 0.0483191
5 *9:8 0.0170684
6 *9:7 0.0185039
7 *419:io_in[17] *419:la_data_in[10] 7.68697e-05
8 *419:io_in[17] *264:14 0
9 *9:8 *44:17 0
10 *9:11 *11:19 0
11 *9:11 *257:11 0.000841733
*RES
1 io_in[17] *9:7 15.525 
2 *9:7 *9:8 134.37 
3 *9:8 *9:10 4.5 
4 *9:10 *9:11 367.29 
5 *9:11 *419:io_in[17] 19.395 
*END

*D_NET *10 0.125684
*CONN
*P io_in[18] I
*I *419:io_in[18] I *D tiny_user_project
*CAP
1 io_in[18] 0.00137713
2 *419:io_in[18] 9.39291e-05
3 *10:17 0.0338199
4 *10:16 0.033726
5 *10:14 0.0135951
6 *10:13 0.0135951
7 *10:11 0.0139327
8 *10:10 0.0153099
9 *419:io_in[18] *379:80 1.18492e-05
10 *7:8 *10:10 0.000221982
*RES
1 io_in[18] *10:10 19.755 
2 *10:10 *10:11 106.65 
3 *10:11 *10:13 4.5 
4 *10:13 *10:14 105.93 
5 *10:14 *10:16 4.5 
6 *10:16 *10:17 252.27 
7 *10:17 *419:io_in[18] 18.63 
*END

*D_NET *11 0.209567
*CONN
*P io_in[19] I
*I *419:io_in[19] I *D tiny_user_project
*CAP
1 io_in[19] 0.0058407
2 *419:io_in[19] 0.00260945
3 *11:19 0.0624192
4 *11:18 0.0598097
5 *11:16 0.010467
6 *11:15 0.010467
7 *11:13 0.0058407
8 *11:19 *67:12 0.017611
9 *11:19 *184:12 0.0345025
10 *9:11 *11:19 0
*RES
1 io_in[19] *11:13 45.585 
2 *11:13 *11:15 4.5 
3 *11:15 *11:16 81.09 
4 *11:16 *11:18 4.5 
5 *11:18 *11:19 532.53 
6 *11:19 *419:io_in[19] 20.835 
*END

*D_NET *12 0.47583
*CONN
*P io_in[1] I
*I *419:io_in[1] I *D tiny_user_project
*CAP
1 io_in[1] 0.000370905
2 *419:io_in[1] 0.00110415
3 *12:19 0.00625055
4 *12:18 0.0051464
5 *12:16 0.0687154
6 *12:15 0.0687154
7 *12:13 0.0202055
8 *12:11 0.0205764
9 *419:io_in[1] *419:wbs_adr_i[24] 0
10 *12:16 la_data_out[50] 0
11 *12:19 *50:11 0.0112434
12 *12:19 *60:15 0.00173265
13 *12:19 *157:12 0.124548
14 *12:19 *235:17 0.00340894
15 *12:19 *254:14 0.00573207
16 *12:19 *289:14 0.125168
17 *12:19 *385:13 0
18 *12:19 *395:11 0.0129113
*RES
1 io_in[1] *12:11 3.195 
2 *12:11 *12:13 154.17 
3 *12:13 *12:15 4.5 
4 *12:15 *12:16 524.43 
5 *12:16 *12:18 4.5 
6 *12:18 *12:19 405.63 
7 *12:19 *419:io_in[1] 19.98 
*END

*D_NET *13 0.130498
*CONN
*P io_in[20] I
*I *419:io_in[20] I *D tiny_user_project
*CAP
1 io_in[20] 0.0277932
2 *419:io_in[20] 7.94064e-05
3 *13:11 0.0207957
4 *13:10 0.0207163
5 *13:8 0.0166601
6 *13:7 0.0166601
7 *13:5 0.0277932
8 *419:io_in[20] *419:wbs_dat_i[7] 0
9 *13:11 *419:wbs_dat_i[7] 0
*RES
1 io_in[20] *13:5 213.525 
2 *13:5 *13:7 4.5 
3 *13:7 *13:8 129.33 
4 *13:8 *13:10 4.5 
5 *13:10 *13:11 152.37 
6 *13:11 *419:io_in[20] 9.63 
*END

*D_NET *14 0.305427
*CONN
*P io_in[21] I
*I *419:io_in[21] I *D tiny_user_project
*CAP
1 io_in[21] 0.00192281
2 *419:io_in[21] 0.000696659
3 *14:14 0.00489967
4 *14:13 0.00420301
5 *14:11 0.0762315
6 *14:10 0.0781543
7 *419:io_in[21] *144:28 6.6972e-05
8 *14:10 *54:17 0.00131701
9 *14:11 *337:13 0
10 *14:14 *17:19 0.0861328
11 *14:14 *52:11 0.00919969
12 *14:14 *122:16 0.0108513
13 *14:14 *272:18 0.00108177
14 *14:14 *374:16 0.0050629
15 *14:14 *401:11 0.0256068
*RES
1 io_in[21] *14:10 28.035 
2 *14:10 *14:11 579.33 
3 *14:11 *14:13 4.5 
4 *14:13 *14:14 218.79 
5 *14:14 *419:io_in[21] 17.9765 
*END

*D_NET *15 0.198165
*CONN
*P io_in[22] I
*I *419:io_in[22] I *D tiny_user_project
*CAP
1 io_in[22] 0.00486662
2 *419:io_in[22] 0
3 *15:22 0.00530225
4 *15:12 0.0547047
5 *15:11 0.0494024
6 *15:9 0.0377628
7 *15:7 0.0426294
8 *15:22 *419:la_oenb[2] 0
9 *15:22 *419:wbs_dat_i[8] 0.000785951
10 *15:22 *112:65 0.00210532
11 *15:22 *187:14 0.00039438
12 *15:22 *227:102 0.000101471
13 *15:22 *267:16 0.000109396
*RES
1 io_in[22] *15:7 37.305 
2 *15:7 *15:9 290.34 
3 *15:9 *15:11 4.5 
4 *15:11 *15:12 383.85 
5 *15:12 *15:22 49.68 
6 *15:22 *419:io_in[22] 4.5 
*END

*D_NET *16 0.395277
*CONN
*P io_in[23] I
*I *419:io_in[23] I *D tiny_user_project
*CAP
1 io_in[23] 0.00105188
2 *419:io_in[23] 0.00268571
3 *16:11 0.0512273
4 *16:10 0.0485416
5 *16:8 0.0275653
6 *16:7 0.0286172
7 *419:io_in[23] *124:17 0
8 *16:8 *54:17 0.192551
9 *16:8 *86:18 0.000239735
10 *16:11 io_out[18] 1.47961e-05
11 *16:11 *131:19 0.00336502
12 *7:8 *16:8 0.0394174
*RES
1 io_in[23] *16:7 12.645 
2 *16:7 *16:8 497.07 
3 *16:8 *16:10 4.5 
4 *16:10 *16:11 374.13 
5 *16:11 *419:io_in[23] 32.895 
*END

*D_NET *17 0.449729
*CONN
*P io_in[24] I
*I *419:io_in[24] I *D tiny_user_project
*CAP
1 io_in[24] 0.000201168
2 *419:io_in[24] 0.000720724
3 *17:19 0.00475173
4 *17:18 0.004031
5 *17:16 0.0752685
6 *17:15 0.0752685
7 *17:13 0.0414168
8 *17:11 0.041618
9 *419:io_in[24] *419:wbs_dat_i[2] 5.79004e-05
10 *17:19 *18:19 0.0588544
11 *17:19 *46:11 0.0435519
12 *17:19 *52:11 0.000916214
13 *17:19 *101:11 0.00581819
14 *17:19 *113:11 0.00773378
15 *17:19 *374:16 0.00338702
16 *14:14 *17:19 0.0861328
*RES
1 io_in[24] *17:11 1.935 
2 *17:11 *17:13 262.71 
3 *17:13 *17:15 4.5 
4 *17:15 *17:16 573.03 
5 *17:16 *17:18 4.5 
6 *17:18 *17:19 292.23 
7 *17:19 *419:io_in[24] 17.7965 
*END

*D_NET *18 0.357853
*CONN
*P io_in[25] I
*I *419:io_in[25] I *D tiny_user_project
*CAP
1 io_in[25] 0.000125876
2 *419:io_in[25] 0.000666241
3 *18:19 0.00687266
4 *18:18 0.00620641
5 *18:16 0.066209
6 *18:15 0.066209
7 *18:13 0.0265523
8 *18:11 0.0266782
9 *18:19 *101:11 0.0964626
10 *18:19 *374:16 0.00301585
11 *17:19 *18:19 0.0588544
*RES
1 io_in[25] *18:11 1.395 
2 *18:11 *18:13 168.21 
3 *18:13 *18:15 4.5 
4 *18:15 *18:16 505.35 
5 *18:16 *18:18 4.5 
6 *18:18 *18:19 244.17 
7 *18:19 *419:io_in[25] 17.6165 
*END

*D_NET *19 0.170786
*CONN
*P io_in[26] I
*I *419:io_in[26] I *D tiny_user_project
*CAP
1 io_in[26] 0.00192467
2 *419:io_in[26] 0.000368872
3 *19:11 0.0489858
4 *19:10 0.048617
5 *19:8 0.0344681
6 *19:7 0.0363927
7 *419:io_in[26] *419:wbs_stb_i 2.85162e-05
*RES
1 io_in[26] *19:7 18.765 
2 *19:7 *19:8 264.87 
3 *19:8 *19:10 4.5 
4 *19:10 *19:11 370.71 
5 *19:11 *419:io_in[26] 11.88 
*END

*D_NET *20 0.161315
*CONN
*P io_in[27] I
*I *419:io_in[27] I *D tiny_user_project
*CAP
1 io_in[27] 0.00035683
2 *419:io_in[27] 0
3 *20:24 0.00456311
4 *20:16 0.0344533
5 *20:15 0.0298902
6 *20:13 0.044708
7 *20:11 0.0450648
8 *20:16 *254:11 0
9 *419:io_in[0] *20:24 0.002279
*RES
1 io_in[27] *20:11 3.015 
2 *20:11 *20:13 349.11 
3 *20:13 *20:15 4.5 
4 *20:15 *20:16 224.19 
5 *20:16 *20:24 46.08 
6 *20:24 *419:io_in[27] 4.5 
*END

*D_NET *21 0.153179
*CONN
*P io_in[28] I
*I *419:io_in[28] I *D tiny_user_project
*CAP
1 io_in[28] 0.000249598
2 *419:io_in[28] 0.000214255
3 *21:19 0.00959401
4 *21:18 0.00937975
5 *21:16 0.0146739
6 *21:15 0.0146739
7 *21:13 0.0406458
8 *21:11 0.0408954
9 *419:io_in[28] *419:wbs_dat_i[10] 0
10 *21:16 *368:11 0.0228523
*RES
1 io_in[28] *21:11 2.475 
2 *21:11 *21:13 316.89 
3 *21:13 *21:15 4.5 
4 *21:15 *21:16 137.79 
5 *21:16 *21:18 4.5 
6 *21:18 *21:19 68.13 
7 *21:19 *419:io_in[28] 10.71 
*END

*D_NET *22 0.130446
*CONN
*P io_in[29] I
*I *419:io_in[29] I *D tiny_user_project
*CAP
1 io_in[29] 0.000177869
2 *419:io_in[29] 0.000291288
3 *22:19 0.00702476
4 *22:18 0.00673347
5 *22:16 0.0138739
6 *22:15 0.0138739
7 *22:13 0.0383204
8 *22:11 0.0384983
9 *419:io_in[29] *419:la_oenb[28] 0.000154731
10 *22:13 *29:11 0.0105123
11 *22:13 *179:11 0.000105554
12 *22:16 *126:11 0
13 *22:16 *179:14 0
14 *22:19 *419:la_oenb[28] 0.000879277
*RES
1 io_in[29] *22:11 1.935 
2 *22:11 *22:13 335.61 
3 *22:13 *22:15 4.5 
4 *22:15 *22:16 102.69 
5 *22:16 *22:18 4.5 
6 *22:18 *22:19 49.41 
7 *22:19 *419:io_in[29] 11.79 
*END

*D_NET *23 0.446627
*CONN
*P io_in[2] I
*I *419:io_in[2] I *D tiny_user_project
*CAP
1 io_in[2] 0.000488121
2 *419:io_in[2] 0.000508488
3 *23:11 0.0302206
4 *23:10 0.0297121
5 *23:8 0.00522668
6 *23:7 0.0057148
7 *419:io_in[2] *419:io_in[3] 0.000221785
8 *419:io_in[2] *124:17 0
9 *419:io_in[2] *207:13 0.000852068
10 *419:io_in[2] *225:16 0.00190686
11 *23:8 *32:8 0.149962
12 *23:8 *39:12 0.00138345
13 *23:8 *40:12 0.0269377
14 *23:8 *50:14 0.0672838
15 *23:8 *99:14 0.00755167
16 *23:11 *112:66 0.118656
*RES
1 io_in[2] *23:7 8.325 
2 *23:7 *23:8 448.11 
3 *23:8 *23:10 4.5 
4 *23:10 *23:11 370.71 
5 *23:11 *419:io_in[2] 16.695 
*END

*D_NET *24 0.196782
*CONN
*P io_in[30] I
*I *419:io_in[30] I *D tiny_user_project
*CAP
1 io_in[30] 0.000113196
2 *419:io_in[30] 0.000931102
3 *24:19 0.0310329
4 *24:18 0.0301018
5 *24:16 0.022075
6 *24:15 0.022075
7 *24:13 0.0252641
8 *24:11 0.0253773
9 *419:io_in[30] *79:10 1.13744e-05
10 *419:io_in[30] *272:17 0.000647978
11 *24:19 *419:wbs_dat_i[1] 0.00147985
12 *24:19 *178:16 0.00128276
13 *24:19 *182:16 0.0131105
14 *24:19 *189:13 0.00133402
15 *24:19 *200:11 0.00821982
16 *24:19 *246:8 0.00190276
17 *24:19 *356:27 0.00146826
18 *24:19 *374:16 0
19 *24:19 *383:13 0.010354
*RES
1 io_in[30] *24:11 1.395 
2 *24:11 *24:13 195.21 
3 *24:13 *24:15 4.5 
4 *24:15 *24:16 167.67 
5 *24:16 *24:18 4.5 
6 *24:18 *24:19 324.09 
7 *24:19 *419:io_in[30] 20.1365 
*END

*D_NET *25 0.104137
*CONN
*P io_in[31] I
*I *419:io_in[31] I *D tiny_user_project
*CAP
1 io_in[31] 0.00307611
2 *419:io_in[31] 0.0001287
3 *25:11 0.0489924
4 *25:10 0.0519398
*RES
1 io_in[31] *25:10 31.995 
2 *25:10 *25:11 370.17 
3 *25:11 *419:io_in[31] 9.99 
*END

*D_NET *26 0.281738
*CONN
*P io_in[32] I
*I *419:io_in[32] I *D tiny_user_project
*CAP
1 io_in[32] 0.000323383
2 *419:io_in[32] 0.00196285
3 *26:19 0.00732906
4 *26:18 0.0103431
5 *26:13 0.0411308
6 *26:11 0.0364773
7 *26:18 *333:9 0
8 *26:19 *47:11 0.000793453
9 *26:19 *85:11 0.0592969
10 *26:19 *93:11 0.111668
11 *26:19 *185:16 0.00515028
12 *26:19 *353:16 0.007263
*RES
1 io_in[32] *26:11 3.015 
2 *26:11 *26:13 276.21 
3 *26:13 *26:18 44.55 
4 *26:18 *26:19 283.05 
5 *26:19 *419:io_in[32] 25.7165 
*END

*D_NET *27 0.12112
*CONN
*P io_in[33] I
*I *419:io_in[33] I *D tiny_user_project
*CAP
1 io_in[33] 0.00321133
2 *419:io_in[33] 0.000150089
3 *27:19 0.047505
4 *27:18 0.0473549
5 *27:16 0.00849476
6 *27:15 0.0117061
7 *419:io_in[33] *419:la_oenb[47] 0
8 *27:19 *419:la_oenb[47] 0.00269807
*RES
1 io_in[33] *27:15 29.385 
2 *27:15 *27:16 64.89 
3 *27:16 *27:18 4.5 
4 *27:18 *27:19 362.61 
5 *27:19 *419:io_in[33] 10.17 
*END

*D_NET *28 0.277587
*CONN
*P io_in[34] I
*I *419:io_in[34] I *D tiny_user_project
*CAP
1 io_in[34] 0.000177869
2 *419:io_in[34] 0.000193783
3 *28:19 0.00951832
4 *28:18 0.00932453
5 *28:16 0.0201237
6 *28:15 0.0201237
7 *28:13 0.0394524
8 *28:11 0.0396302
9 *419:io_in[34] *419:la_data_in[27] 1.41827e-05
10 *28:16 *399:14 0.115022
11 *28:19 *419:la_data_in[27] 0.008868
12 *28:19 *60:21 0.015139
*RES
1 io_in[34] *28:11 1.935 
2 *28:11 *28:13 297.99 
3 *28:13 *28:15 4.5 
4 *28:15 *28:16 294.57 
5 *28:16 *28:18 4.5 
6 *28:18 *28:19 87.03 
7 *28:19 *419:io_in[34] 9.99 
*END

*D_NET *29 0.276591
*CONN
*P io_in[35] I
*I *419:io_in[35] I *D tiny_user_project
*CAP
1 io_in[35] 0.00117627
2 *419:io_in[35] 0.00161695
3 *29:11 0.0420509
4 *29:10 0.0404339
5 *29:8 0.052765
6 *29:7 0.0539413
7 *419:io_in[35] *235:16 0.00103787
8 *29:11 *36:19 0.00186635
9 *29:11 *73:16 0.00533992
10 *29:11 *78:13 0.000391254
11 *29:11 *102:11 0.0508974
12 *29:11 *145:16 0.0024701
13 *29:11 *265:14 0
14 *29:11 *348:12 0.0028807
15 *29:11 *357:14 0.00177816
16 *29:11 *378:8 0.00743217
17 *22:13 *29:11 0.0105123
*RES
1 io_in[35] *29:7 13.365 
2 *29:7 *29:8 405.63 
3 *29:8 *29:10 4.5 
4 *29:10 *29:11 547.11 
5 *29:11 *419:io_in[35] 23.76 
*END

*D_NET *30 0.413008
*CONN
*P io_in[36] I
*I *419:io_in[36] I *D tiny_user_project
*CAP
1 io_in[36] 0.00177706
2 *419:io_in[36] 0.00272743
3 *30:12 0.0229655
4 *30:11 0.0202381
5 *30:9 0.077703
6 *30:7 0.07948
7 *419:io_in[36] *419:wbs_dat_i[0] 9.22612e-05
8 *30:12 *94:12 0.0685917
9 *30:12 *123:11 0.113382
10 *30:12 *178:19 0.0260508
*RES
1 io_in[36] *30:7 13.185 
2 *30:7 *30:9 583.56 
3 *30:9 *30:11 4.5 
4 *30:11 *30:12 440.37 
5 *30:12 *419:io_in[36] 23.715 
*END

*D_NET *31 0.540276
*CONN
*P io_in[37] I
*I *419:io_in[37] I *D tiny_user_project
*CAP
1 io_in[37] 0.000323383
2 *419:io_in[37] 0.0022161
3 *31:16 0.00397648
4 *31:15 0.00176039
5 *31:13 0.0797356
6 *31:11 0.080059
7 *419:io_in[37] *419:la_data_in[23] 0.000127808
8 *419:io_in[37] *116:11 0.000347961
9 *419:io_in[37] *308:11 8.15849e-05
10 *419:io_in[37] *308:13 0.00332662
11 *31:13 *216:11 0